#
# To try: ./LANs -f bus.ini
#

[General]
sim-time-limit = 120s
tkenv-plugin-path = ../../../etc/plugins
**.vector-recording = false

[Config OneGw]
network = OneGw

**.messageSet = xmldoc("MessageSet.xml","NodeInfo/Node[@ID=$MODULE_NAME]")
# Common configuration for GW
**.canEthernetConvApp.NodeInfo = xmldoc("MessageSet.xml", "NodeInfo")

# Configuration for CAN SrvHost
#**.srv.sendInterval = 2s #100s

# Configuration for GW
**.canEthernetConvApp.localPort = 100
**.canEthernetConvApp.destPort = 100
**.canEthernetConvApp.messageLength = 1250 bytes
**.canEthernetConvApp.convInterval = 10ms
**.canEthernetConvApp.destAddresses = "172.0.0.1"

**.canEthernetGw.router.numCanBuses = 1
**.canEthernetGw.router.numEthernetBuses = 1
**.canEthernetGw.router.numCGWApps = 1
**.canEthernetGw.router.routingmap = xmldoc("RoutingMap.xml","*/RoutingMap[@ID='1']")

**.CGWAppSrv.message = xmldoc("MessageSet.xml","NodeInfo/Node[@ID=$MODULE_NAME]")

# Configuration for Ethernet Node 1

**.EtherHost.numUdpApps = 1
**.EtherHost.udpApp[*].typename = "UDPCanframeSrv"
**.udpApp[0].localPort = 100
**.udpApp[0].destPort = 100
**.udpApp[0].messageLength = 1250 bytes
**.udpApp[0].sendInterval = 100ms # 2s
**.udpApp[0].destAddresses = "172.0.0.2 172.0.0.2"


**.Sender.ctl.queueKind = 1
